* NGSPICE file created from sky130_ef_ip__xtal_osc_32k.ext - technology: sky130A

.subckt sky130_ef_ip__xtal_osc_32k in out dout boost ena dvdd dvss avss avdd
X0 a_17408_7856# a_17242_n1544# avss.t59 sky130_fd_pr__res_xhigh_po_0p35 l=45
X1 a_18692_n7722# a_18526_n17122# avss.t62 sky130_fd_pr__res_xhigh_po_0p35 l=45
X2 a_17076_7856# a_17242_n1544# avss.t119 sky130_fd_pr__res_xhigh_po_0p35 l=45
X3 a_19400_7856# a_19566_n1544# avss.t97 sky130_fd_pr__res_xhigh_po_0p35 l=45
X4 a_15704_n7722# a_15870_n17122# avss.t111 sky130_fd_pr__res_xhigh_po_0p35 l=45
X5 a_12016_n2556# a_12250_n6756# avss.t58 sky130_fd_pr__res_high_po_0p69 l=19
X6 a_12428_7856# a_12594_n1544# avss.t69 sky130_fd_pr__res_xhigh_po_0p35 l=45
X7 a_17696_n7722# a_17862_n17122# avss.t169 sky130_fd_pr__res_xhigh_po_0p35 l=45
X8 a_19688_n7722# a_19854_n17122# avss.t22 sky130_fd_pr__res_xhigh_po_0p35 l=45
X9 a_21328_7846# a_21494_n1554# avss.t136 sky130_fd_pr__res_xhigh_po_0p35 l=45
X10 a_13092_7856# a_12926_n1544# avss.t206 sky130_fd_pr__res_xhigh_po_0p35 l=45
X11 a_13092_7856# a_13258_n1544# avss.t46 sky130_fd_pr__res_xhigh_po_0p35 l=45
X12 a_21992_7846# a_22158_n1554# avss.t20 sky130_fd_pr__res_xhigh_po_0p35 l=45
X13 a_22600_n5610# x2.out_h x2.outb_h avdd.t3 sky130_fd_pr__pfet_g5v0d10v5 ad=0.122 pd=1.42 as=0.122 ps=1.42 w=0.42 l=0.5
X14 a_14356_n2556# a_14122_n6756# avss.t27 sky130_fd_pr__res_high_po_0p69 l=19
X15 a_21016_n7722# a_20850_n17122# avss.t4 sky130_fd_pr__res_xhigh_po_0p35 l=45
X16 a_23008_n7722# a_22842_n17122# avss.t175 sky130_fd_pr__res_xhigh_po_0p35 l=45
X17 a_13048_n7722# a_12882_n17122# avss.t160 sky130_fd_pr__res_xhigh_po_0p35 l=45
X18 a_23496_n5882# a_17816_n4824.t2 dvdd.t1 dvdd.t0 sky130_fd_pr__pfet_01v8 ad=0.29 pd=2.58 as=0.29 ps=2.58 w=1 l=0.15
X19 avss.t121 level_shifter_0.outb_h.t2 a_18430_n5450.t0 avss.t120 sky130_fd_pr__nfet_g5v0d10v5 ad=0.122 pd=1.42 as=0.122 ps=1.42 w=0.42 l=0.5
X20 a_12052_n7722# a_12218_n17122# avss.t86 sky130_fd_pr__res_xhigh_po_0p35 l=45
X21 a_17740_7856# a_17574_n1544# avss.t42 sky130_fd_pr__res_xhigh_po_0p35 l=45
X22 a_17740_7856# a_17906_n1544# avss.t137 sky130_fd_pr__res_xhigh_po_0p35 l=45
X23 a_12484_n2556# a_12718_n6756# avss.t165 sky130_fd_pr__res_high_po_0p69 l=19
X24 a_15760_n2556# a_15994_n6756# avss.t164 sky130_fd_pr__res_high_po_0p69 l=19
X25 dvdd.t3 boost.t0 x2.inb_l dvdd.t2 sky130_fd_pr__pfet_01v8 ad=0.29 pd=2.58 as=0.29 ps=2.58 w=1 l=0.15
X26 dvdd.t5 ena.t0 level_shifter_0.inb_l dvdd.t4 sky130_fd_pr__pfet_01v8 ad=0.29 pd=2.58 as=0.29 ps=2.58 w=1 l=0.15
X27 a_18404_7856# a_18238_n1544# avss.t2 sky130_fd_pr__res_xhigh_po_0p35 l=45
X28 a_21992_7846# a_21826_n1554# avss.t35 sky130_fd_pr__res_xhigh_po_0p35 l=45
X29 in.t0 level_shifter_0.outb_h.t3 avss.t123 avss.t122 sky130_fd_pr__nfet_g5v0d10v5 ad=0.122 pd=1.42 as=0.122 ps=1.42 w=0.42 l=0.5
X30 a_11432_7856# a_11432_n1544# avss.t153 sky130_fd_pr__res_xhigh_po_0p35 l=45
X31 a_13756_7856# a_13590_n1544# avss.t26 sky130_fd_pr__res_xhigh_po_0p35 l=45
X32 a_13888_n2556# a_14122_n6756# avss.t142 sky130_fd_pr__res_high_po_0p69 l=19
X33 a_22600_n3372# level_shifter_0.out_h.t2 level_shifter_0.outb_h.t1 avdd.t3 sky130_fd_pr__pfet_g5v0d10v5 ad=0.122 pd=1.42 as=0.122 ps=1.42 w=0.42 l=0.5
X34 a_13424_7856# a_13590_n1544# avss.t180 sky130_fd_pr__res_xhigh_po_0p35 l=45
X35 a_20064_7856# a_20230_n1544# avss.t44 sky130_fd_pr__res_xhigh_po_0p35 l=45
X36 a_22656_7846# a_22490_n1554# avss.t80 sky130_fd_pr__res_xhigh_po_0p35 l=45
X37 a_22324_7846# a_22490_n1554# avss.t129 sky130_fd_pr__res_xhigh_po_0p35 l=45
X38 avdd.t18 a_18586_n3386.t2 a_18586_n3386.t3 avdd.t17 sky130_fd_pr__pfet_g5v0d10v5 ad=0.122 pd=1.42 as=0.122 ps=1.42 w=0.42 l=0.5
X39 a_14088_7856# a_14254_n1544# avss.t29 sky130_fd_pr__res_xhigh_po_0p35 l=45
X40 a_16412_7856# a_16578_n1544# avss.t117 sky130_fd_pr__res_xhigh_po_0p35 l=45
X41 a_20020_n7722# a_20186_n17122# avss.t79 sky130_fd_pr__res_xhigh_po_0p35 l=45
X42 a_22988_7846# a_23154_n1554# avss.t192 sky130_fd_pr__res_xhigh_po_0p35 l=45
X43 a_22600_n3372# level_shifter_0.outb_h.t4 avdd.t9 avdd.t6 sky130_fd_pr__pfet_g5v0d10v5 ad=0.122 pd=1.42 as=0.122 ps=1.42 w=0.42 l=0.5
X44 a_22012_n7722# a_22178_n17122# avss.t48 sky130_fd_pr__res_xhigh_po_0p35 l=45
X45 a_15760_n2556# a_15526_n6756# avss.t138 sky130_fd_pr__res_high_po_0p69 l=19
X46 a_17076_7856# a_16910_n1544# avss.t196 sky130_fd_pr__res_xhigh_po_0p35 l=45
X47 a_11548_n2556# a_11782_n6756# avss.t162 sky130_fd_pr__res_high_po_0p69 l=19
X48 a_19918_n3966# a_18586_n3386.t4 avdd.t10 avdd.t0 sky130_fd_pr__pfet_g5v0d10v5 ad=0.122 pd=1.42 as=0.122 ps=1.42 w=0.42 l=0.5
X49 a_20020_n7722# a_19854_n17122# avss.t88 sky130_fd_pr__res_xhigh_po_0p35 l=45
X50 a_16228_n2556# a_15994_n6756# avss.t84 sky130_fd_pr__res_high_po_0p69 l=19
X51 a_22012_n7722# a_21846_n17122# avss.t132 sky130_fd_pr__res_xhigh_po_0p35 l=45
X52 a_21348_n7722# a_21182_n17122# avss.t38 sky130_fd_pr__res_xhigh_po_0p35 l=45
X53 a_12052_n7722# a_11886_n17122# avss.t1 sky130_fd_pr__res_xhigh_po_0p35 l=45
X54 a_11388_n7722# avdd avss.t187 sky130_fd_pr__res_xhigh_po_0p35 l=45
X55 a_24004_n7722# a_23838_n17122# avss.t65 sky130_fd_pr__res_xhigh_po_0p35 l=45
X56 a_14044_n7722# a_13878_n17122# avss.t134 sky130_fd_pr__res_xhigh_po_0p35 l=45
X57 a_20352_n7722# a_20518_n17122# avss.t183 sky130_fd_pr__res_xhigh_po_0p35 l=45
X58 a_16036_n7722# a_15870_n17122# avss.t140 sky130_fd_pr__res_xhigh_po_0p35 l=45
X59 a_18028_n7722# a_17862_n17122# avss.t15 sky130_fd_pr__res_xhigh_po_0p35 l=45
X60 a_18736_7856# a_18902_n1544# avss.t191 sky130_fd_pr__res_xhigh_po_0p35 l=45
X61 a_17816_n5362# level_shifter_0.out_h.t3 a_17816_n4824.t0 avss.t144 sky130_fd_pr__nfet_g5v0d10v5 ad=0.122 pd=1.42 as=0.122 ps=1.42 w=0.42 l=0.5
X62 a_13048_n7722# a_13214_n17122# avss.t87 sky130_fd_pr__res_xhigh_po_0p35 l=45
X63 a_19302_n3966# a_18986_n4850# a_17874_n5450# avdd.t14 sky130_fd_pr__pfet_g5v0d10v5 ad=0.122 pd=1.42 as=0.122 ps=1.42 w=0.42 l=0.5
X64 avss.t110 a_18430_n5450.t5 a_20040_n5362# avss.t109 sky130_fd_pr__nfet_g5v0d10v5 ad=0.122 pd=1.42 as=0.122 ps=1.42 w=0.42 l=0.5
X65 a_15040_n7722# a_15206_n17122# avss.t83 sky130_fd_pr__res_xhigh_po_0p35 l=45
D0 dvss.t8 boost.t1 sky130_fd_pr__diode_pw2nd_05v5 pj=1.8e+06 area=2.025e+11
X66 a_13888_n2556# a_13654_n6756# avss.t179 sky130_fd_pr__res_high_po_0p69 l=19
X67 a_11764_7856# a_11930_n1544# avss.t125 sky130_fd_pr__res_xhigh_po_0p35 l=45
X68 a_19400_7856# a_19234_n1544# avss.t12 sky130_fd_pr__res_xhigh_po_0p35 l=45
X69 a_20754_n4824# level_shifter_0.out_h.t4 a_18430_n5450.t2 avss.t43 sky130_fd_pr__nfet_g5v0d10v5 ad=0.122 pd=1.42 as=0.122 ps=1.42 w=0.42 l=0.5
X70 a_23496_n5882# level_shifter_0.inb_l dvss.t9 dvss.t5 sky130_fd_pr__nfet_01v8 ad=0.122 pd=1.42 as=0.122 ps=1.42 w=0.42 l=0.15
X71 a_18928_n5362# a_18986_n4850# a_17874_n5450# avss.t170 sky130_fd_pr__nfet_g5v0d10v5 ad=0.122 pd=1.42 as=0.122 ps=1.42 w=0.42 l=0.5
X72 a_14752_7856# a_14586_n1544# avss.t6 sky130_fd_pr__res_xhigh_po_0p35 l=45
X73 a_14752_7856# a_14918_n1544# avss.t91 sky130_fd_pr__res_xhigh_po_0p35 l=45
X74 a_23652_7846# a_23818_n1554# avss.t16 sky130_fd_pr__res_xhigh_po_0p35 l=45
X75 a_12016_n2556# a_11782_n6756# avss.t45 sky130_fd_pr__res_high_po_0p69 l=19
X76 a_23496_n5882# ena.t1 a_24303_n4394# dvss.t5 sky130_fd_pr__nfet_01v8 ad=0.145 pd=1.58 as=0.145 ps=1.58 w=0.5 l=0.15
X77 a_23652_7846# a_23486_n1554# avss.t76 sky130_fd_pr__res_xhigh_po_0p35 l=45
X78 a_15292_n2556# a_15058_n6756# avss.t101 sky130_fd_pr__res_high_po_0p69 l=19
X79 a_15084_7856# a_15250_n1544# avss.t193 sky130_fd_pr__res_xhigh_po_0p35 l=45
X80 a_15416_7856# a_15250_n1544# avss.t60 sky130_fd_pr__res_xhigh_po_0p35 l=45
X81 a_17408_7856# a_17574_n1544# avss.t150 sky130_fd_pr__res_xhigh_po_0p35 l=45
X82 a_19732_7856# a_19898_n1544# avss.t124 sky130_fd_pr__res_xhigh_po_0p35 l=45
X83 dout a_23496_n5882# dvss.t10 sky130_fd_pr__res_high_po_0p69 l=10
X84 a_23984_7846# a_24150_n1554# avss.t40 sky130_fd_pr__res_xhigh_po_0p35 l=45
X85 avdd a_24150_n1554# avss.t19 sky130_fd_pr__res_xhigh_po_0p35 l=45
X86 a_21016_n7722# a_21182_n17122# avss.t188 sky130_fd_pr__res_xhigh_po_0p35 l=45
X87 dvss.t4 ena.t2 level_shifter_0.inb_l dvss.t3 sky130_fd_pr__nfet_01v8 ad=0.29 pd=2.58 as=0.29 ps=2.58 w=1 l=0.15
X88 a_23008_n7722# a_23174_n17122# avss.t94 sky130_fd_pr__res_xhigh_po_0p35 l=45
X89 a_18072_7856# a_18238_n1544# avss.t10 sky130_fd_pr__res_xhigh_po_0p35 l=45
X90 a_18072_7856# a_17906_n1544# avss.t154 sky130_fd_pr__res_xhigh_po_0p35 l=45
X91 a_13420_n2556# a_13654_n6756# avss.t195 sky130_fd_pr__res_high_po_0p69 l=19
X92 avss.t52 a_18430_n5450.t6 a_18372_n5362# avss.t51 sky130_fd_pr__nfet_g5v0d10v5 ad=0.122 pd=1.42 as=0.122 ps=1.42 w=0.42 l=0.5
X93 a_22600_n5610# x2.outb_h avdd.t7 avdd.t6 sky130_fd_pr__pfet_g5v0d10v5 ad=0.122 pd=1.42 as=0.122 ps=1.42 w=0.42 l=0.5
X94 a_20352_n7722# a_20186_n17122# avss.t178 sky130_fd_pr__res_xhigh_po_0p35 l=45
X95 a_22344_n7722# a_22178_n17122# avss.t37 sky130_fd_pr__res_xhigh_po_0p35 l=45
X96 a_18686_n3966# a_18586_n3386.t5 avdd.t12 avdd.t11 sky130_fd_pr__pfet_g5v0d10v5 ad=0.122 pd=1.42 as=0.122 ps=1.42 w=0.42 l=0.5
X97 a_17032_n7722# a_17198_n17122# avss.t158 sky130_fd_pr__res_xhigh_po_0p35 l=45
X98 a_12384_n7722# a_12218_n17122# avss.t163 sky130_fd_pr__res_xhigh_po_0p35 l=45
X99 a_20754_n4824# a_24170_n17122# avss.t30 sky130_fd_pr__res_xhigh_po_0p35 l=45
X100 a_20064_7856# a_19898_n1544# avss.t92 sky130_fd_pr__res_xhigh_po_0p35 l=45
X101 a_15040_n7722# a_14874_n17122# avss.t181 sky130_fd_pr__res_xhigh_po_0p35 l=45
X102 a_14376_n7722# a_14210_n17122# avss.t186 sky130_fd_pr__res_xhigh_po_0p35 l=45
X103 avss.t24 ena.t3 level_shifter_0.outb_h.t0 avss.t23 sky130_fd_pr__nfet_g5v0d10v5 ad=0.122 pd=1.42 as=0.122 ps=1.42 w=0.42 l=0.5
X104 avss.t53 a_18430_n5450.t7 a_19484_n5362# avss.t11 sky130_fd_pr__nfet_g5v0d10v5 ad=0.122 pd=1.42 as=0.122 ps=1.42 w=0.42 l=0.5
X105 a_21348_n7722# a_21514_n17122# avss.t189 sky130_fd_pr__res_xhigh_po_0p35 l=45
X106 a_17032_n7722# a_16866_n17122# avss.t67 sky130_fd_pr__res_xhigh_po_0p35 l=45
X107 a_16368_n7722# a_16202_n17122# avss.t114 sky130_fd_pr__res_xhigh_po_0p35 l=45
X108 a_11388_n7722# a_11554_n17122# avss.t95 sky130_fd_pr__res_xhigh_po_0p35 l=45
X109 a_23340_n7722# a_23506_n17122# avss.t9 sky130_fd_pr__res_xhigh_po_0p35 l=45
X110 a_14088_7856# a_13922_n1544# avss.t7 sky130_fd_pr__res_xhigh_po_0p35 l=45
X111 a_19024_n7722# a_18858_n17122# avss.t28 sky130_fd_pr__res_xhigh_po_0p35 l=45
X112 a_14044_n7722# a_14210_n17122# avss.t135 sky130_fd_pr__res_xhigh_po_0p35 l=45
X113 a_13380_n7722# a_13546_n17122# avss.t78 sky130_fd_pr__res_xhigh_po_0p35 l=45
X114 a_15372_n7722# a_15538_n17122# avss.t205 sky130_fd_pr__res_xhigh_po_0p35 l=45
X115 a_16036_n7722# a_16202_n17122# avss.t199 sky130_fd_pr__res_xhigh_po_0p35 l=45
X116 a_12716_n7722# a_12550_n17122# avss.t161 sky130_fd_pr__res_xhigh_po_0p35 l=45
X117 a_14708_n7722# a_14542_n17122# avss.t108 sky130_fd_pr__res_xhigh_po_0p35 l=45
X118 x2.out_h x2.inb_l avss.t14 avss.t13 sky130_fd_pr__nfet_g5v0d10v5 ad=0.122 pd=1.42 as=0.122 ps=1.42 w=0.42 l=0.5
D1 in.t2 avdd.t5 sky130_fd_pr__diode_pd2nw_05v5 pj=1.8e+06 area=2.025e+11
X119 a_15748_7856# a_15914_n1544# avss.t81 sky130_fd_pr__res_xhigh_po_0p35 l=45
X120 a_13420_n2556# a_13186_n6756# avss.t141 sky130_fd_pr__res_high_po_0p69 l=19
X121 a_12952_n2556# a_13186_n6756# avss.t66 sky130_fd_pr__res_high_po_0p69 l=19
X122 a_16412_7856# a_16246_n1544# avss.t34 sky130_fd_pr__res_xhigh_po_0p35 l=45
X123 a_18404_7856# a_18570_n1544# avss.t174 sky130_fd_pr__res_xhigh_po_0p35 l=45
X124 a_18736_7856# a_18570_n1544# avss.t63 sky130_fd_pr__res_xhigh_po_0p35 l=45
X125 a_11764_7856# a_11598_n1544# avss.t168 sky130_fd_pr__res_xhigh_po_0p35 l=45
X126 in a_20562_n1544# avss.t126 sky130_fd_pr__res_xhigh_po_0p35 l=45
X127 avdd.t8 level_shifter_0.out_h.t5 a_21832_n4040# avdd.t1 sky130_fd_pr__pfet_g5v0d10v5 ad=0.122 pd=1.42 as=0.122 ps=1.42 w=0.42 l=0.5
X128 a_24004_n7722# a_24170_n17122# avss.t131 sky130_fd_pr__res_xhigh_po_0p35 l=45
X129 a_19068_7856# a_19234_n1544# avss.t99 sky130_fd_pr__res_xhigh_po_0p35 l=45
X130 a_20396_7856# a_20562_n1544# avss.t72 sky130_fd_pr__res_xhigh_po_0p35 l=45
X131 a_22988_7846# a_22822_n1554# avss.t197 sky130_fd_pr__res_xhigh_po_0p35 l=45
X132 x2.out_h x2.outb_h a_21832_n5612# avdd.t1 sky130_fd_pr__pfet_g5v0d10v5 ad=0.122 pd=1.42 as=0.122 ps=1.42 w=0.42 l=0.5
X133 a_20684_n7722# a_20518_n17122# avss.t41 sky130_fd_pr__res_xhigh_po_0p35 l=45
X134 a_15292_n2556# a_15526_n6756# avss.t21 sky130_fd_pr__res_high_po_0p69 l=19
X135 a_12428_7856# a_12262_n1544# avss.t172 sky130_fd_pr__res_xhigh_po_0p35 l=45
X136 a_11548_n2556# out avss.t133 sky130_fd_pr__res_high_po_0p69 l=19
X137 a_23340_n7722# a_23174_n17122# avss.t32 sky130_fd_pr__res_xhigh_po_0p35 l=45
X138 a_22676_n7722# a_22510_n17122# avss.t0 sky130_fd_pr__res_xhigh_po_0p35 l=45
X139 a_12096_7856# a_12262_n1544# avss.t145 sky130_fd_pr__res_xhigh_po_0p35 l=45
X140 a_14420_7856# a_14586_n1544# avss.t148 sky130_fd_pr__res_xhigh_po_0p35 l=45
X141 dvdd.t6 a_17874_n5450# a_17816_n4824.t1 avdd.t13 sky130_fd_pr__pfet_g5v0d10v5 ad=0.122 pd=1.42 as=0.122 ps=1.42 w=0.42 l=0.5
X142 a_18028_n7722# a_18194_n17122# avss.t112 sky130_fd_pr__res_xhigh_po_0p35 l=45
X143 a_13380_n7722# a_13214_n17122# avss.t105 sky130_fd_pr__res_xhigh_po_0p35 l=45
X144 a_21328_7846# a_20756_n6088# avss.t82 sky130_fd_pr__res_xhigh_po_0p35 l=45
X145 a_23320_7846# a_23486_n1554# avss.t103 sky130_fd_pr__res_xhigh_po_0p35 l=45
X146 a_15372_n7722# a_15206_n17122# avss.t39 sky130_fd_pr__res_xhigh_po_0p35 l=45
X147 a_22344_n7722# a_22510_n17122# avss.t90 sky130_fd_pr__res_xhigh_po_0p35 l=45
X148 a_21680_n7722# a_21846_n17122# avss.t177 sky130_fd_pr__res_xhigh_po_0p35 l=45
X149 dvss.t7 boost.t2 x2.inb_l dvss.t6 sky130_fd_pr__nfet_01v8 ad=0.29 pd=2.58 as=0.29 ps=2.58 w=1 l=0.15
X150 a_23672_n7722# a_23838_n17122# avss.t201 sky130_fd_pr__res_xhigh_po_0p35 l=45
X151 a_17364_n7722# a_17198_n17122# avss.t107 sky130_fd_pr__res_xhigh_po_0p35 l=45
X152 a_12384_n7722# a_12550_n17122# avss.t85 sky130_fd_pr__res_xhigh_po_0p35 l=45
X153 a_11720_n7722# a_11886_n17122# avss.t155 sky130_fd_pr__res_xhigh_po_0p35 l=45
X154 a_15084_7856# a_14918_n1544# avss.t200 sky130_fd_pr__res_xhigh_po_0p35 l=45
X155 a_19356_n7722# a_19190_n17122# avss.t47 sky130_fd_pr__res_xhigh_po_0p35 l=45
X156 a_14376_n7722# a_14542_n17122# avss.t173 sky130_fd_pr__res_xhigh_po_0p35 l=45
X157 a_13712_n7722# a_13878_n17122# avss.t115 sky130_fd_pr__res_xhigh_po_0p35 l=45
X158 a_20756_n6088# x2.out_h a_18430_n5450.t1 avss.t18 sky130_fd_pr__nfet_g5v0d10v5 ad=0.122 pd=1.42 as=0.122 ps=1.42 w=0.42 l=0.5
X159 a_16368_n7722# a_16534_n17122# avss.t31 sky130_fd_pr__res_xhigh_po_0p35 l=45
X160 a_11720_n7722# a_11554_n17122# avss.t96 sky130_fd_pr__res_xhigh_po_0p35 l=45
X161 a_18360_n7722# a_18526_n17122# avss.t64 sky130_fd_pr__res_xhigh_po_0p35 l=45
X162 a_13712_n7722# a_13546_n17122# avss.t33 sky130_fd_pr__res_xhigh_po_0p35 l=45
X163 avss.t57 level_shifter_0.outb_h.t5 a_11432_n1544# avss.t56 sky130_fd_pr__nfet_g5v0d10v5 ad=0.122 pd=1.42 as=0.122 ps=1.42 w=0.42 l=0.5
X164 a_15704_n7722# a_15538_n17122# avss.t25 sky130_fd_pr__res_xhigh_po_0p35 l=45
X165 a_16744_7856# a_16910_n1544# avss.t36 sky130_fd_pr__res_xhigh_po_0p35 l=45
D2 dvss.t2 ena.t4 sky130_fd_pr__diode_pw2nd_05v5 pj=1.8e+06 area=2.025e+11
X166 a_20040_n5362# level_shifter_0.out_h.t6 a_18586_n3386.t0 avss.t109 sky130_fd_pr__nfet_g5v0d10v5 ad=0.122 pd=1.42 as=0.122 ps=1.42 w=0.42 l=0.5
X167 a_14356_n2556# a_14590_n6756# avss.t194 sky130_fd_pr__res_high_po_0p69 l=19
X168 a_14824_n2556# a_15058_n6756# avss.t5 sky130_fd_pr__res_high_po_0p69 l=19
X169 avdd.t19 level_shifter_0.out_h.t7 a_18586_n3386.t1 avdd.t17 sky130_fd_pr__pfet_g5v0d10v5 ad=0.122 pd=1.42 as=0.122 ps=1.42 w=0.42 l=0.5
X170 a_19918_n3966# in.t3 a_18986_n4850# avdd.t0 sky130_fd_pr__pfet_g5v0d10v5 ad=0.122 pd=1.42 as=0.122 ps=1.42 w=0.42 l=0.5
X171 a_19732_7856# a_19566_n1544# avss.t100 sky130_fd_pr__res_xhigh_po_0p35 l=45
X172 avss.t204 boost.t3 x2.outb_h avss.t203 sky130_fd_pr__nfet_g5v0d10v5 ad=0.122 pd=1.42 as=0.122 ps=1.42 w=0.42 l=0.5
X173 a_12760_7856# a_12594_n1544# avss.t113 sky130_fd_pr__res_xhigh_po_0p35 l=45
X174 a_12760_7856# a_12926_n1544# avss.t146 sky130_fd_pr__res_xhigh_po_0p35 l=45
X175 a_21660_7846# a_21826_n1554# avss.t116 sky130_fd_pr__res_xhigh_po_0p35 l=45
X176 a_16696_n2556# a_11432_n1544# avss.t98 sky130_fd_pr__res_high_po_0p69 l=19
X177 a_21660_7846# a_21494_n1554# avss.t71 sky130_fd_pr__res_xhigh_po_0p35 l=45
X178 a_23984_7846# a_23818_n1554# avss.t139 sky130_fd_pr__res_xhigh_po_0p35 l=45
X179 a_12952_n2556# a_12718_n6756# avss.t151 sky130_fd_pr__res_high_po_0p69 l=19
X180 level_shifter_0.out_h.t0 level_shifter_0.outb_h.t6 a_21832_n4040# avdd.t1 sky130_fd_pr__pfet_g5v0d10v5 ad=0.122 pd=1.42 as=0.122 ps=1.42 w=0.42 l=0.5
X181 a_21680_n7722# a_21514_n17122# avss.t182 sky130_fd_pr__res_xhigh_po_0p35 l=45
X182 avdd.t2 x2.out_h a_21832_n5612# avdd.t1 sky130_fd_pr__pfet_g5v0d10v5 ad=0.122 pd=1.42 as=0.122 ps=1.42 w=0.42 l=0.5
X183 a_23672_n7722# a_23506_n17122# avss.t157 sky130_fd_pr__res_xhigh_po_0p35 l=45
X184 a_13424_7856# a_13258_n1544# avss.t130 sky130_fd_pr__res_xhigh_po_0p35 l=45
X185 a_15416_7856# a_15582_n1544# avss.t166 sky130_fd_pr__res_xhigh_po_0p35 l=45
X186 a_15748_7856# a_15582_n1544# avss.t167 sky130_fd_pr__res_xhigh_po_0p35 l=45
X187 a_16696_n2556# a_16462_n6756# avss.t49 sky130_fd_pr__res_high_po_0p69 l=19
X188 a_19024_n7722# a_19190_n17122# avss.t17 sky130_fd_pr__res_xhigh_po_0p35 l=45
X189 a_22324_7846# a_22158_n1554# avss.t202 sky130_fd_pr__res_xhigh_po_0p35 l=45
X190 a_20684_n7722# a_20850_n17122# avss.t70 sky130_fd_pr__res_xhigh_po_0p35 l=45
X191 a_22676_n7722# a_22842_n17122# avss.t74 sky130_fd_pr__res_xhigh_po_0p35 l=45
X192 a_18360_n7722# a_18194_n17122# avss.t143 sky130_fd_pr__res_xhigh_po_0p35 l=45
X193 a_17696_n7722# a_17530_n17122# avss.t171 sky130_fd_pr__res_xhigh_po_0p35 l=45
X194 a_12716_n7722# a_12882_n17122# avss.t118 sky130_fd_pr__res_xhigh_po_0p35 l=45
X195 a_16080_7856# a_15914_n1544# avss.t55 sky130_fd_pr__res_xhigh_po_0p35 l=45
X196 a_16080_7856# a_16246_n1544# avss.t8 sky130_fd_pr__res_xhigh_po_0p35 l=45
X197 a_18372_n5362# a_17874_n5450# a_11432_n1544# avss.t51 sky130_fd_pr__nfet_g5v0d10v5 ad=0.122 pd=1.42 as=0.122 ps=1.42 w=0.42 l=0.5
X198 a_19688_n7722# a_19522_n17122# avss.t61 sky130_fd_pr__res_xhigh_po_0p35 l=45
X199 a_19302_n3966# a_18586_n3386.t6 avdd.t15 avdd.t14 sky130_fd_pr__pfet_g5v0d10v5 ad=0.122 pd=1.42 as=0.122 ps=1.42 w=0.42 l=0.5
X200 a_14708_n7722# a_14874_n17122# avss.t77 sky130_fd_pr__res_xhigh_po_0p35 l=45
X201 a_17364_n7722# a_17530_n17122# avss.t156 sky130_fd_pr__res_xhigh_po_0p35 l=45
X202 a_16700_n7722# a_16866_n17122# avss.t93 sky130_fd_pr__res_xhigh_po_0p35 l=45
X203 a_11432_7856# a_11598_n1544# avss.t75 sky130_fd_pr__res_xhigh_po_0p35 l=45
X204 a_19068_7856# a_18902_n1544# avss.t54 sky130_fd_pr__res_xhigh_po_0p35 l=45
X205 a_20396_7856# a_20230_n1544# avss.t102 sky130_fd_pr__res_xhigh_po_0p35 l=45
X206 a_19356_n7722# a_19522_n17122# avss.t50 sky130_fd_pr__res_xhigh_po_0p35 l=45
X207 a_18692_n7722# a_18858_n17122# avss.t104 sky130_fd_pr__res_xhigh_po_0p35 l=45
X208 a_19484_n5362# in.t4 a_18986_n4850# avss.t11 sky130_fd_pr__nfet_g5v0d10v5 ad=0.122 pd=1.42 as=0.122 ps=1.42 w=0.42 l=0.5
X209 a_16700_n7722# a_16534_n17122# avss.t149 sky130_fd_pr__res_xhigh_po_0p35 l=45
X210 a_12096_7856# a_11930_n1544# avss.t190 sky130_fd_pr__res_xhigh_po_0p35 l=45
D3 avss.t106 in.t5 sky130_fd_pr__diode_pw2nd_05v5 pj=1.8e+06 area=2.025e+11
X211 a_24303_n4394# a_17816_n4824.t3 dvss.t1 dvss.t0 sky130_fd_pr__nfet_01v8 ad=0.145 pd=1.58 as=0.145 ps=1.58 w=0.5 l=0.15
X212 level_shifter_0.out_h.t1 level_shifter_0.inb_l avss.t185 avss.t184 sky130_fd_pr__nfet_g5v0d10v5 ad=0.122 pd=1.42 as=0.122 ps=1.42 w=0.42 l=0.5
X213 a_12484_n2556# a_12250_n6756# avss.t3 sky130_fd_pr__res_high_po_0p69 l=19
X214 a_16228_n2556# a_16462_n6756# avss.t198 sky130_fd_pr__res_high_po_0p69 l=19
X215 avss.t147 a_17874_n5450# a_17816_n5362# avss.t144 sky130_fd_pr__nfet_g5v0d10v5 ad=0.122 pd=1.42 as=0.122 ps=1.42 w=0.42 l=0.5
X216 a_18686_n3966# a_17874_n5450# a_11432_n1544# avdd.t11 sky130_fd_pr__pfet_g5v0d10v5 ad=0.122 pd=1.42 as=0.122 ps=1.42 w=0.42 l=0.5
X217 a_13756_7856# a_13922_n1544# avss.t159 sky130_fd_pr__res_xhigh_po_0p35 l=45
X218 a_22656_7846# a_22822_n1554# avss.t152 sky130_fd_pr__res_xhigh_po_0p35 l=45
X219 avss.t127 a_18430_n5450.t3 a_18430_n5450.t4 avss.t43 sky130_fd_pr__nfet_g5v0d10v5 ad=0.122 pd=1.42 as=0.122 ps=1.42 w=0.42 l=0.5
X220 a_14824_n2556# a_14590_n6756# avss.t89 sky130_fd_pr__res_high_po_0p69 l=19
X221 avss.t176 a_18430_n5450.t8 a_18928_n5362# avss.t170 sky130_fd_pr__nfet_g5v0d10v5 ad=0.122 pd=1.42 as=0.122 ps=1.42 w=0.42 l=0.5
X222 a_14420_7856# a_14254_n1544# avss.t68 sky130_fd_pr__res_xhigh_po_0p35 l=45
X223 a_16744_7856# a_16578_n1544# avss.t73 sky130_fd_pr__res_xhigh_po_0p35 l=45
X224 a_23320_7846# a_23154_n1554# avss.t128 sky130_fd_pr__res_xhigh_po_0p35 l=45
R0 avss.n274 avss.n273 259212
R1 avss.n172 avss.n3 67408.8
R2 avss.n337 avss.n3 67408.8
R3 avss.n337 avss.n4 67408.8
R4 avss.n172 avss.n4 67408.8
R5 avss.n38 avss.n12 56828.7
R6 avss.n313 avss.n12 56828.7
R7 avss.n38 avss.n13 56828.7
R8 avss.n313 avss.n13 56828.7
R9 avss.n45 avss.n28 38554.1
R10 avss.n49 avss.n28 38554.1
R11 avss.n49 avss.n29 38554.1
R12 avss.n45 avss.n29 38554.1
R13 avss.n336 avss.n6 30621.9
R14 avss.n336 avss.n7 30621.9
R15 avss.n332 avss.n7 30621.9
R16 avss.n332 avss.n6 30621.9
R17 avss.t98 avss.n11 13763
R18 avss.n338 avss.n2 4379.86
R19 avss.n173 avss.n2 4379.86
R20 avss.n312 avss.n311 3692.42
R21 avss.n298 avss.n297 3638.28
R22 avss.n174 avss.n1 3272.22
R23 avss.n339 avss.n1 3271.47
R24 avss.n35 avss.n23 3007.15
R25 avss.n301 avss.n23 3007.15
R26 avss.n35 avss.n26 3007.15
R27 avss.n301 avss.n26 3007.15
R28 avss.n33 avss.n14 2870.73
R29 avss.n40 avss.n33 2640.91
R30 avss.n48 avss.n47 2505.04
R31 avss.n47 avss.n46 2505.04
R32 avss.n333 avss.n9 1989.65
R33 avss.n334 avss.n333 1989.65
R34 avss.n39 avss.n37 1886.87
R35 avss.n300 avss.n299 1829.81
R36 avss.n300 avss.n298 1829.81
R37 avss.n335 avss.n334 1605.89
R38 avss.n9 avss.n8 1514.63
R39 avss.n31 avss.n30 1449.76
R40 avss.n44 avss.n31 1447.88
R41 avss.n311 avss.n310 1422.34
R42 avss.n331 avss.n10 1417.63
R43 avss.n308 avss.n17 1407.97
R44 avss.n308 avss.n18 1407.97
R45 avss.n307 avss.n18 1407.97
R46 avss.n307 avss.n17 1407.97
R47 avss.n296 avss.n52 1379.81
R48 avss.n296 avss.n53 1379.81
R49 avss.n275 avss.n53 1379.81
R50 avss.n275 avss.n52 1379.81
R51 avss.n289 avss.n57 1379.81
R52 avss.n291 avss.n57 1379.81
R53 avss.n289 avss.n58 1379.81
R54 avss.n207 avss.n149 1379.81
R55 avss.n207 avss.n150 1379.81
R56 avss.n159 avss.n150 1379.81
R57 avss.n159 avss.n149 1379.81
R58 avss.n162 avss.n154 1379.81
R59 avss.n162 avss.n155 1379.81
R60 avss.n170 avss.n155 1379.81
R61 avss.n170 avss.n154 1379.81
R62 avss.n110 avss.n109 1277.72
R63 avss.n243 avss.n110 1277.72
R64 avss.n244 avss.n243 1277.72
R65 avss.n244 avss.n109 1277.72
R66 avss.n246 avss.n98 1277.72
R67 avss.n246 avss.n99 1277.72
R68 avss.n249 avss.n99 1277.72
R69 avss.n249 avss.n98 1277.72
R70 avss.n256 avss.n88 1277.72
R71 avss.n255 avss.n88 1277.72
R72 avss.n255 avss.n87 1277.72
R73 avss.n256 avss.n87 1277.72
R74 avss.n260 avss.n79 1277.72
R75 avss.n261 avss.n79 1277.72
R76 avss.n261 avss.n78 1277.72
R77 avss.n260 avss.n78 1277.72
R78 avss.n267 avss.n67 1277.72
R79 avss.n266 avss.n67 1277.72
R80 avss.n266 avss.n66 1277.72
R81 avss.n267 avss.n66 1277.72
R82 avss.n188 avss.n61 1277.72
R83 avss.n188 avss.n62 1277.72
R84 avss.n272 avss.n62 1277.72
R85 avss.n272 avss.n61 1277.72
R86 avss.n115 avss.n113 1277.72
R87 avss.n242 avss.n115 1277.72
R88 avss.n242 avss.n114 1277.72
R89 avss.n114 avss.n113 1277.72
R90 avss.n103 avss.n101 1277.72
R91 avss.n103 avss.n102 1277.72
R92 avss.n102 avss.n100 1277.72
R93 avss.n101 avss.n100 1277.72
R94 avss.n95 avss.n90 1277.72
R95 avss.n95 avss.n91 1277.72
R96 avss.n122 avss.n91 1277.72
R97 avss.n122 avss.n90 1277.72
R98 avss.n120 avss.n76 1277.72
R99 avss.n120 avss.n83 1277.72
R100 avss.n83 avss.n82 1277.72
R101 avss.n82 avss.n76 1277.72
R102 avss.n73 avss.n69 1277.72
R103 avss.n73 avss.n70 1277.72
R104 avss.n186 avss.n70 1277.72
R105 avss.n186 avss.n69 1277.72
R106 avss.n185 avss.n181 1277.72
R107 avss.n190 avss.n181 1277.72
R108 avss.n190 avss.n59 1277.72
R109 avss.n185 avss.n59 1277.72
R110 avss.n229 avss.n126 1277.72
R111 avss.n229 avss.n228 1277.72
R112 avss.n228 avss.n127 1277.72
R113 avss.n127 avss.n126 1277.72
R114 avss.n218 avss.n131 1277.72
R115 avss.n224 avss.n131 1277.72
R116 avss.n224 avss.n132 1277.72
R117 avss.n218 avss.n132 1277.72
R118 avss.n214 avss.n143 1277.72
R119 avss.n143 avss.n142 1277.72
R120 avss.n215 avss.n142 1277.72
R121 avss.n215 avss.n214 1277.72
R122 avss.n146 avss.n145 1277.72
R123 avss.n211 avss.n145 1277.72
R124 avss.n211 avss.n210 1277.72
R125 avss.n210 avss.n146 1277.72
R126 avss.n299 avss.n19 1211.18
R127 avss.t23 avss.n277 1007.74
R128 avss.n276 avss.t184 1007.74
R129 avss.n277 avss.n276 851.614
R130 avss.n312 avss.n14 779.068
R131 avss.n302 avss.n20 776.426
R132 avss.n297 avss.n51 714.409
R133 avss.t106 avss.n19 615.054
R134 avss.t106 avss.n11 615.054
R135 avss.n339 avss.n338 590.249
R136 avss.n174 avss.n173 589.495
R137 avss.n290 avss.n58 585.457
R138 avss.t43 avss.n189 569.726
R139 avss.t109 avss.n71 569.726
R140 avss.t11 avss.n84 569.726
R141 avss.t170 avss.n92 569.726
R142 avss.n248 avss.t51 569.726
R143 avss.t51 avss.n247 569.726
R144 avss.t144 avss.n104 569.726
R145 avss.t144 avss.n10 569.726
R146 avss.n273 avss.n60 564.378
R147 avss.n187 avss.n68 564.378
R148 avss.n81 avss.n80 564.378
R149 avss.n121 avss.n89 564.378
R150 avss.n46 avss.n44 540.713
R151 avss.n48 avss.n30 538.832
R152 avss.n40 avss.n39 535.067
R153 avss.t133 avss.n336 495.288
R154 avss.n331 avss.t98 486.81
R155 avss.t164 avss.n316 420.94
R156 avss.n189 avss.n187 347.721
R157 avss.n81 avss.n71 347.721
R158 avss.n121 avss.n84 347.721
R159 avss.n248 avss.n92 347.721
R160 avss.n247 avss.n104 347.721
R161 avss.n18 avss.n15 292.51
R162 avss.n24 avss.n17 292.5
R163 avss.n19 avss.n17 292.5
R164 avss.n309 avss.n308 292.5
R165 avss.n308 avss.t106 292.5
R166 avss.n18 avss.n11 292.5
R167 avss.n307 avss.n306 292.5
R168 avss.t106 avss.n307 292.5
R169 avss.t184 avss.n274 269.678
R170 avss.t49 avss.t198 266.668
R171 avss.t84 avss.t164 266.668
R172 avss.t21 avss.t101 266.668
R173 avss.t5 avss.t89 266.668
R174 avss.t27 avss.t142 266.668
R175 avss.t179 avss.t195 266.668
R176 avss.t66 avss.t151 266.668
R177 avss.t165 avss.t3 266.668
R178 avss.t58 avss.t45 266.668
R179 avss.n263 avss.t53 236.433
R180 avss.n72 avss.t110 236.429
R181 avss.n111 avss.t147 236.425
R182 avss.n93 avss.t176 236.423
R183 avss.n97 avss.t52 236.423
R184 avss.n182 avss.t127 236.38
R185 avss.n232 avss.t57 234.208
R186 avss.n136 avss.t123 234.203
R187 avss.n197 avss.t121 234.175
R188 avss.n281 avss.t24 233.954
R189 avss.n167 avss.t204 233.954
R190 avss.n282 avss.t185 233.929
R191 avss.n203 avss.t14 233.929
R192 avss.n178 avss.n148 159.185
R193 avss.n134 avss.n130 150.589
R194 avss.n156 avss.n154 146.25
R195 avss.t203 avss.n154 146.25
R196 avss.n166 avss.n155 146.25
R197 avss.t203 avss.n155 146.25
R198 avss.n151 avss.n149 146.25
R199 avss.t13 avss.n149 146.25
R200 avss.n152 avss.n150 146.25
R201 avss.t13 avss.n150 146.25
R202 avss.n178 avss.n146 146.25
R203 avss.n209 avss.n146 146.25
R204 avss.n211 avss.n144 146.25
R205 avss.n212 avss.n211 146.25
R206 avss.n210 avss.n148 146.25
R207 avss.n210 avss.t18 146.25
R208 avss.n214 avss.n144 146.25
R209 avss.n214 avss.n213 146.25
R210 avss.n219 avss.n142 146.25
R211 avss.n216 avss.n142 146.25
R212 avss.n215 avss.n135 146.25
R213 avss.t120 avss.n215 146.25
R214 avss.n219 avss.n218 146.25
R215 avss.n218 avss.n217 146.25
R216 avss.n224 avss.n223 146.25
R217 avss.n225 avss.n224 146.25
R218 avss.n221 avss.n132 146.25
R219 avss.t122 avss.n132 146.25
R220 avss.n223 avss.n126 146.25
R221 avss.n226 avss.n126 146.25
R222 avss.n228 avss.n130 146.25
R223 avss.n228 avss.n227 146.25
R224 avss.n134 avss.n127 146.25
R225 avss.t56 avss.n127 146.25
R226 avss.n180 avss.n145 146.25
R227 avss.n145 avss.n60 146.25
R228 avss.n195 avss.n143 146.25
R229 avss.n143 avss.n68 146.25
R230 avss.n139 avss.n131 146.25
R231 avss.n131 avss.n80 146.25
R232 avss.n230 avss.n229 146.25
R233 avss.n229 avss.n89 146.25
R234 avss.n185 avss.n184 146.25
R235 avss.t43 avss.n185 146.25
R236 avss.n177 avss.n59 146.25
R237 avss.n273 avss.n59 146.25
R238 avss.n181 avss.n176 146.25
R239 avss.n189 avss.n181 146.25
R240 avss.n191 avss.n190 146.25
R241 avss.n190 avss.t43 146.25
R242 avss.n265 avss.n69 146.25
R243 avss.t109 avss.n69 146.25
R244 avss.n186 avss.n176 146.25
R245 avss.n187 avss.n186 146.25
R246 avss.n74 avss.n73 146.25
R247 avss.n73 avss.n71 146.25
R248 avss.n194 avss.n70 146.25
R249 avss.t109 avss.n70 146.25
R250 avss.n262 avss.n76 146.25
R251 avss.t11 avss.n76 146.25
R252 avss.n82 avss.n74 146.25
R253 avss.n82 avss.n81 146.25
R254 avss.n123 avss.n120 146.25
R255 avss.n120 avss.n84 146.25
R256 avss.n138 avss.n83 146.25
R257 avss.t11 avss.n83 146.25
R258 avss.n254 avss.n90 146.25
R259 avss.t170 avss.n90 146.25
R260 avss.n123 avss.n122 146.25
R261 avss.n122 avss.n121 146.25
R262 avss.n96 avss.n95 146.25
R263 avss.n95 avss.n92 146.25
R264 avss.n125 avss.n91 146.25
R265 avss.t170 avss.n91 146.25
R266 avss.n107 avss.n101 146.25
R267 avss.t51 avss.n101 146.25
R268 avss.n100 avss.n96 146.25
R269 avss.n248 avss.n100 146.25
R270 avss.n116 avss.n103 146.25
R271 avss.n247 avss.n103 146.25
R272 avss.n117 avss.n102 146.25
R273 avss.t51 avss.n102 146.25
R274 avss.n113 avss.n112 146.25
R275 avss.t144 avss.n113 146.25
R276 avss.n116 avss.n114 146.25
R277 avss.n114 avss.n104 146.25
R278 avss.n240 avss.n115 146.25
R279 avss.n115 avss.n10 146.25
R280 avss.n242 avss.n241 146.25
R281 avss.t144 avss.n242 146.25
R282 avss.n270 avss.n61 146.25
R283 avss.t43 avss.n61 146.25
R284 avss.n272 avss.n271 146.25
R285 avss.n273 avss.n272 146.25
R286 avss.n188 avss.n64 146.25
R287 avss.n189 avss.n188 146.25
R288 avss.n184 avss.n62 146.25
R289 avss.t43 avss.n62 146.25
R290 avss.n268 avss.n267 146.25